<?xml version="1.0" encoding="UTF-8"?>

<!-- generated on 10/23/20 12:09:02 by Eclipse SUMO netedit Version 1.7.0
<configuration xmlns:xsi="http://www.w3.org/2001/XMLSchema-instance" xsi:noNamespaceSchemaLocation="http://sumo.dlr.de/xsd/netconvertConfiguration.xsd">

    <input>
        <sumo-net-file value="D:\TRAFFIC%20OPTIMIZATION\DATASETS\Dhanmondi.net.xml"/>
    </input>

    <output>
        <output-file value="D:\TRAFFIC%20OPTIMIZATION\DATASETS\Dhanmondi.net.xml"/>
    </output>

    <processing>
        <geometry.min-radius.fix.railways value="false"/>
        <geometry.max-grade.fix value="false"/>
        <offset.disable-normalization value="true"/>
        <lefthand value="false"/>
    </processing>

    <junctions>
        <no-turnarounds value="true"/>
        <junctions.corner-detail value="5"/>
        <junctions.limit-turn-speed value="5.5"/>
        <rectangular-lane-cut value="false"/>
    </junctions>

    <pedestrian>
        <walkingareas value="false"/>
    </pedestrian>

    <report>
        <aggregate-warnings value="5"/>
    </report>

</configuration>
-->

<net version="1.6" junctionCornerDetail="5" limitTurnSpeed="5.50" xmlns:xsi="http://www.w3.org/2001/XMLSchema-instance" xsi:noNamespaceSchemaLocation="http://sumo.dlr.de/xsd/net_file.xsd">

    <location netOffset="-231179.67,-2627755.32" convBoundary="1069.57,1978.88,1577.57,2397.06" origBoundary="90.362174,23.738746,90.383688,23.777274" projParameter="+proj=utm +zone=46 +ellps=WGS84 +datum=WGS84 +units=m +no_defs"/>

    <type id="highway.bridleway" priority="1" numLanes="1" speed="2.78" allow="pedestrian" oneway="1" width="2.00"/>
    <type id="highway.bus_guideway" priority="1" numLanes="1" speed="27.78" allow="bus" oneway="1"/>
    <type id="highway.cycleway" priority="1" numLanes="1" speed="8.33" allow="bicycle" oneway="0" width="1.00"/>
    <type id="highway.footway" priority="1" numLanes="1" speed="2.78" allow="pedestrian" oneway="1" width="2.00"/>
    <type id="highway.ford" priority="1" numLanes="1" speed="2.78" allow="army" oneway="0"/>
    <type id="highway.living_street" priority="2" numLanes="1" speed="2.78" disallow="tram rail_urban rail rail_electric rail_fast ship" oneway="0"/>
    <type id="highway.motorway" priority="14" numLanes="2" speed="39.44" allow="private emergency authority army vip passenger hov taxi bus coach delivery truck trailer motorcycle evehicle custom1 custom2" oneway="1"/>
    <type id="highway.motorway_link" priority="9" numLanes="1" speed="22.22" allow="private emergency authority army vip passenger hov taxi bus coach delivery truck trailer motorcycle evehicle custom1 custom2" oneway="1"/>
    <type id="highway.path" priority="1" numLanes="1" speed="2.78" allow="pedestrian bicycle" oneway="1" width="2.00"/>
    <type id="highway.pedestrian" priority="1" numLanes="1" speed="2.78" allow="pedestrian" oneway="1" width="2.00"/>
    <type id="highway.primary" priority="12" numLanes="2" speed="27.78" disallow="tram rail_urban rail rail_electric rail_fast ship" oneway="0"/>
    <type id="highway.primary_link" priority="7" numLanes="1" speed="22.22" disallow="tram rail_urban rail rail_electric rail_fast ship" oneway="0"/>
    <type id="highway.raceway" priority="15" numLanes="2" speed="83.33" allow="vip" oneway="0"/>
    <type id="highway.residential" priority="3" numLanes="1" speed="13.89" disallow="tram rail_urban rail rail_electric rail_fast ship" oneway="0"/>
    <type id="highway.secondary" priority="11" numLanes="1" speed="27.78" disallow="tram rail_urban rail rail_electric rail_fast ship" oneway="0"/>
    <type id="highway.secondary_link" priority="6" numLanes="1" speed="22.22" disallow="tram rail_urban rail rail_electric rail_fast ship" oneway="0"/>
    <type id="highway.service" priority="1" numLanes="1" speed="5.56" allow="pedestrian delivery bicycle" oneway="0"/>
    <type id="highway.stairs" priority="1" numLanes="1" speed="1.39" allow="pedestrian" oneway="1" width="2.00"/>
    <type id="highway.step" priority="1" numLanes="1" speed="1.39" allow="pedestrian" oneway="1" width="2.00"/>
    <type id="highway.steps" priority="1" numLanes="1" speed="1.39" allow="pedestrian" oneway="1" width="2.00"/>
    <type id="highway.tertiary" priority="10" numLanes="1" speed="22.22" disallow="tram rail_urban rail rail_electric rail_fast ship" oneway="0"/>
    <type id="highway.tertiary_link" priority="5" numLanes="1" speed="22.22" disallow="tram rail_urban rail rail_electric rail_fast ship" oneway="0"/>
    <type id="highway.track" priority="1" numLanes="1" speed="5.56" allow="pedestrian motorcycle moped bicycle" oneway="0"/>
    <type id="highway.trunk" priority="13" numLanes="2" speed="27.78" disallow="pedestrian bicycle tram rail_urban rail rail_electric rail_fast ship" oneway="0"/>
    <type id="highway.trunk_link" priority="8" numLanes="1" speed="22.22" disallow="pedestrian bicycle tram rail_urban rail rail_electric rail_fast ship" oneway="0"/>
    <type id="highway.unclassified" priority="4" numLanes="1" speed="13.89" disallow="tram rail_urban rail rail_electric rail_fast ship" oneway="0"/>
    <type id="highway.unsurfaced" priority="1" numLanes="1" speed="8.33" disallow="tram rail_urban rail rail_electric rail_fast ship" oneway="0"/>
    <type id="railway.highspeed" priority="21" numLanes="1" speed="69.44" allow="rail_fast" oneway="1"/>
    <type id="railway.light_rail" priority="19" numLanes="1" speed="27.78" allow="rail_urban" oneway="1"/>
    <type id="railway.preserved" priority="16" numLanes="1" speed="27.78" allow="rail" oneway="1"/>
    <type id="railway.rail" priority="20" numLanes="1" speed="44.44" allow="rail" oneway="1"/>
    <type id="railway.subway" priority="18" numLanes="1" speed="27.78" allow="rail_urban" oneway="1"/>
    <type id="railway.tram" priority="17" numLanes="1" speed="13.89" allow="tram" oneway="1"/>

    <edge id=":1789210440_0" function="internal">
        <lane id=":1789210440_0_0" index="0" disallow="pedestrian bicycle tram rail_urban rail rail_electric rail_fast ship" speed="7.89" length="14.44" shape="1216.61,2154.84 1213.23,2152.72 1211.42,2150.05 1211.17,2146.83 1212.49,2143.07"/>
    </edge>
    <edge id=":1789210440_1" function="internal">
        <lane id=":1789210440_1_0" index="0" disallow="pedestrian bicycle tram rail_urban rail rail_electric rail_fast ship" speed="6.37" length="9.04" shape="1217.91,2151.91 1215.79,2150.59 1214.66,2148.92 1214.50,2146.90 1215.33,2144.55"/>
    </edge>
    <edge id=":1789210440_2" function="internal">
        <lane id=":1789210440_2_0" index="0" disallow="pedestrian bicycle tram rail_urban rail rail_electric rail_fast ship" speed="13.89" length="14.31" shape="1200.14,2152.67 1206.82,2140.11"/>
        <lane id=":1789210440_2_1" index="1" disallow="pedestrian bicycle tram rail_urban rail rail_electric rail_fast ship" speed="13.89" length="14.31" shape="1202.95,2154.20 1209.65,2141.59"/>
        <lane id=":1789210440_2_2" index="2" disallow="pedestrian bicycle tram rail_urban rail rail_electric rail_fast ship" speed="13.89" length="14.31" shape="1205.76,2155.72 1212.49,2143.07"/>
        <lane id=":1789210440_2_3" index="3" disallow="pedestrian bicycle tram rail_urban rail rail_electric rail_fast ship" speed="13.89" length="14.31" shape="1208.58,2157.25 1215.33,2144.55"/>
    </edge>
    <edge id=":387094106_0" function="internal">
        <lane id=":387094106_0_0" index="0" disallow="tram rail_urban rail rail_electric rail_fast ship" speed="3.65" length="4.67" shape="1109.06,2117.44 1108.36,2116.19 1108.37,2115.29 1109.09,2114.76 1110.52,2114.60"/>
    </edge>
    <edge id=":4528473378_0" function="internal">
        <lane id=":4528473378_0_0" index="0" disallow="pedestrian bicycle tram rail_urban rail rail_electric rail_fast ship" speed="13.89" length="9.82" shape="1197.02,2151.08 1192.40,2159.79"/>
        <lane id=":4528473378_0_1" index="1" disallow="pedestrian bicycle tram rail_urban rail rail_electric rail_fast ship" speed="13.89" length="9.82" shape="1194.19,2149.59 1189.59,2158.27"/>
        <lane id=":4528473378_0_2" index="2" disallow="pedestrian bicycle tram rail_urban rail rail_electric rail_fast ship" speed="13.89" length="9.82" shape="1191.37,2148.09 1186.77,2156.75"/>
        <lane id=":4528473378_0_3" index="3" disallow="pedestrian bicycle tram rail_urban rail rail_electric rail_fast ship" speed="13.89" length="9.82" shape="1188.54,2146.60 1183.96,2155.23"/>
    </edge>
    <edge id=":4528473378_4" function="internal">
        <lane id=":4528473378_4_0" index="0" disallow="pedestrian bicycle tram rail_urban rail rail_electric rail_fast ship" speed="8.00" length="13.81" shape="1188.54,2146.60 1185.77,2151.41 1183.38,2154.64 1181.37,2156.30 1179.73,2156.38"/>
    </edge>
    <edge id=":4528473378_5" function="internal">
        <lane id=":4528473378_5_0" index="0" disallow="pedestrian bicycle tram rail_urban rail rail_electric rail_fast ship" speed="7.16" length="10.86" shape="1188.54,2146.60 1186.42,2150.16 1184.48,2152.50 1182.72,2153.62 1181.13,2153.50"/>
    </edge>
    <edge id=":4528473378_6" function="internal">
        <lane id=":4528473378_6_0" index="0" disallow="pedestrian bicycle tram rail_urban rail rail_electric rail_fast ship" speed="6.97" length="10.88" shape="1183.93,2147.75 1186.40,2149.42 1187.69,2151.48 1187.82,2153.92 1186.77,2156.75"/>
    </edge>
    <edge id=":4528473378_7" function="internal">
        <lane id=":4528473378_7_0" index="0" disallow="pedestrian bicycle tram rail_urban rail rail_electric rail_fast ship" speed="5.19" length="5.55" shape="1182.53,2150.62 1183.78,2151.48 1184.44,2152.53 1184.49,2153.78 1183.96,2155.23"/>
    </edge>
    <edge id=":4528473378_8" function="internal">
        <lane id=":4528473378_8_0" index="0" disallow="tram rail_urban rail rail_electric rail_fast ship" speed="3.65" length="4.67" shape="1182.53,2150.62 1183.26,2151.87 1183.27,2152.76 1182.56,2153.31 1181.13,2153.50"/>
    </edge>
    <edge id=":4963776925_0" function="internal">
        <lane id=":4963776925_0_0" index="0" disallow="pedestrian bicycle tram rail_urban rail rail_electric rail_fast ship" speed="13.89" length="19.11" shape="1169.37,2208.76 1178.64,2191.92"/>
        <lane id=":4963776925_0_1" index="1" disallow="pedestrian bicycle tram rail_urban rail rail_electric rail_fast ship" speed="13.89" length="19.11" shape="1172.20,2210.24 1181.44,2193.47"/>
        <lane id=":4963776925_0_2" index="2" disallow="pedestrian bicycle tram rail_urban rail rail_electric rail_fast ship" speed="13.89" length="19.11" shape="1175.03,2211.73 1184.24,2195.02"/>
        <lane id=":4963776925_0_3" index="3" disallow="pedestrian bicycle tram rail_urban rail rail_electric rail_fast ship" speed="13.89" length="19.11" shape="1177.87,2213.22 1187.04,2196.57"/>
    </edge>
    <edge id=":4963776925_4" function="internal">
        <lane id=":4963776925_4_0" index="0" disallow="pedestrian bicycle tram rail_urban rail rail_electric rail_fast ship" speed="16.10" length="18.77" shape="1177.87,2213.22 1180.34,2208.21 1182.28,2204.74 1184.98,2202.08 1189.74,2199.50"/>
    </edge>
    <edge id=":4963776925_5" function="internal">
        <lane id=":4963776925_5_0" index="0" disallow="pedestrian bicycle tram rail_urban rail rail_electric rail_fast ship" speed="15.61" length="17.61" shape="1177.87,2213.22 1180.50,2208.84 1183.02,2206.30 1186.26,2204.52 1191.04,2202.42"/>
    </edge>
    <edge id=":4963776925_6" function="internal">
        <lane id=":4963776925_6_0" index="0" disallow="pedestrian bicycle tram rail_urban rail rail_electric rail_fast ship" speed="12.84" length="16.87" shape="1177.87,2213.22 1179.72,2210.92 1182.76,2208.84 1186.97,2206.99 1192.36,2205.36"/>
    </edge>
    <edge id=":4963776926_0" function="internal">
        <lane id=":4963776926_0_0" index="0" disallow="pedestrian bicycle tram rail_urban rail rail_electric rail_fast ship" speed="6.65" length="9.46" shape="1191.65,2161.17 1189.85,2164.69 1188.76,2167.31 1188.39,2169.04 1188.73,2169.87"/>
    </edge>
    <edge id=":4963776926_1" function="internal">
        <lane id=":4963776926_1_0" index="0" disallow="pedestrian bicycle tram rail_urban rail rail_electric rail_fast ship" speed="7.57" length="12.57" shape="1191.65,2161.17 1189.18,2165.92 1187.61,2169.42 1186.95,2171.67 1187.19,2172.68"/>
    </edge>
    <edge id=":4963776926_2" function="internal">
        <lane id=":4963776926_2_0" index="0" disallow="pedestrian bicycle tram rail_urban rail rail_electric rail_fast ship" speed="13.89" length="17.84" shape="1191.65,2161.17 1183.15,2176.84"/>
        <lane id=":4963776926_2_1" index="1" disallow="pedestrian bicycle tram rail_urban rail rail_electric rail_fast ship" speed="13.89" length="17.84" shape="1188.84,2159.64 1180.33,2175.32"/>
        <lane id=":4963776926_2_2" index="2" disallow="pedestrian bicycle tram rail_urban rail rail_electric rail_fast ship" speed="13.89" length="17.84" shape="1186.03,2158.11 1177.52,2173.79"/>
        <lane id=":4963776926_2_3" index="3" disallow="pedestrian bicycle tram rail_urban rail rail_electric rail_fast ship" speed="13.89" length="17.84" shape="1183.22,2156.58 1174.71,2172.27"/>
    </edge>
    <edge id=":4963776942_0" function="internal">
        <lane id=":4963776942_0_0" index="0" disallow="tram rail_urban rail rail_electric rail_fast ship" speed="17.84" length="12.84" shape="1216.77,2177.02 1219.06,2178.13 1220.71,2178.73 1222.44,2179.02 1224.98,2179.18"/>
        <lane id=":4963776942_0_1" index="1" disallow="tram rail_urban rail rail_electric rail_fast ship" speed="19.15" length="12.84" shape="1215.34,2179.88 1217.98,2181.16 1219.88,2181.86 1221.88,2182.19 1224.81,2182.38"/>
        <lane id=":4963776942_0_2" index="2" disallow="tram rail_urban rail rail_electric rail_fast ship" speed="20.38" length="12.84" shape="1213.91,2182.74 1216.90,2184.19 1219.06,2184.98 1221.33,2185.36 1224.65,2185.57"/>
        <lane id=":4963776942_0_3" index="3" disallow="tram rail_urban rail rail_electric rail_fast ship" speed="21.54" length="12.84" shape="1212.48,2185.61 1215.82,2187.23 1218.24,2188.11 1220.77,2188.53 1224.48,2188.77"/>
        <lane id=":4963776942_0_4" index="4" disallow="tram rail_urban rail rail_electric rail_fast ship" speed="22.49" length="12.84" shape="1212.48,2185.61 1215.92,2187.82 1218.13,2189.78 1220.48,2191.25 1224.32,2191.97"/>
        <lane id=":4963776942_0_5" index="5" disallow="tram rail_urban rail rail_electric rail_fast ship" speed="24.01" length="12.84" shape="1212.48,2185.61 1216.09,2188.47 1218.02,2191.50 1220.10,2193.98 1224.15,2195.16"/>
        <lane id=":4963776942_0_6" index="6" disallow="tram rail_urban rail rail_electric rail_fast ship" speed="25.83" length="12.84" shape="1212.48,2185.61 1216.31,2189.16 1217.90,2193.26 1219.65,2196.72 1223.99,2198.36"/>
    </edge>
    <edge id=":4963776943_0" function="internal">
        <lane id=":4963776943_0_0" index="0" disallow="tram rail_urban rail rail_electric rail_fast ship" speed="20.84" length="8.91" shape="1262.33,2177.97 1259.72,2177.51 1258.06,2176.59 1256.40,2175.59 1253.81,2174.92"/>
        <lane id=":4963776943_0_1" index="1" disallow="tram rail_urban rail rail_electric rail_fast ship" speed="20.84" length="8.91" shape="1262.42,2174.77 1259.89,2174.31 1258.28,2173.39 1256.68,2172.41 1254.16,2171.74"/>
        <lane id=":4963776943_0_2" index="2" disallow="tram rail_urban rail rail_electric rail_fast ship" speed="20.84" length="8.91" shape="1262.52,2171.57 1260.06,2171.12 1258.51,2170.20 1256.96,2169.22 1254.52,2168.56"/>
    </edge>
    <edge id=":4963776943_3" function="internal">
        <lane id=":4963776943_3_0" index="0" disallow="tram rail_urban rail rail_electric rail_fast ship" speed="18.21" length="8.22" shape="1262.61,2168.37 1260.36,2167.92 1259.02,2166.92 1257.76,2165.62 1255.71,2164.30"/>
    </edge>
    <edge id=":4963776943_4" function="internal">
        <lane id=":4963776943_4_0" index="0" disallow="tram rail_urban rail rail_electric rail_fast ship" speed="16.85" length="7.02" shape="1262.71,2165.18 1260.82,2164.74 1259.76,2163.78 1258.75,2162.57 1257.04,2161.39"/>
    </edge>
    <edge id=":6234996944_0" function="internal">
        <lane id=":6234996944_0_0" index="0" disallow="tram rail_urban rail rail_electric rail_fast ship" speed="27.78" length="7.40" shape="1263.71,2181.18 1272.40,2181.56"/>
        <lane id=":6234996944_0_1" index="1" disallow="tram rail_urban rail rail_electric rail_fast ship" speed="27.78" length="7.40" shape="1264.04,2184.40 1272.30,2184.76"/>
        <lane id=":6234996944_0_2" index="2" disallow="tram rail_urban rail rail_electric rail_fast ship" speed="27.78" length="7.40" shape="1264.37,2187.62 1272.20,2187.96"/>
        <lane id=":6234996944_0_3" index="3" disallow="tram rail_urban rail rail_electric rail_fast ship" speed="27.78" length="7.40" shape="1264.70,2190.84 1272.09,2191.16"/>
        <lane id=":6234996944_0_4" index="4" disallow="tram rail_urban rail rail_electric rail_fast ship" speed="27.78" length="7.40" shape="1265.03,2194.06 1271.99,2194.35"/>
        <lane id=":6234996944_0_5" index="5" disallow="tram rail_urban rail rail_electric rail_fast ship" speed="27.78" length="7.40" shape="1265.36,2197.28 1271.88,2197.55"/>
        <lane id=":6234996944_0_6" index="6" disallow="tram rail_urban rail rail_electric rail_fast ship" speed="27.78" length="7.40" shape="1265.70,2200.51 1271.78,2200.75"/>
    </edge>
    <edge id=":6234996944_7" function="internal">
        <lane id=":6234996944_7_0" index="0" disallow="tram rail_urban rail rail_electric rail_fast ship" speed="25.00" length="8.04" shape="1264.44,2188.26 1266.87,2187.50 1268.36,2186.29 1269.86,2185.18 1272.30,2184.76"/>
        <lane id=":6234996944_7_1" index="1" disallow="tram rail_urban rail rail_electric rail_fast ship" speed="25.00" length="8.04" shape="1264.44,2188.26 1266.73,2188.02 1268.31,2187.91 1269.89,2187.89 1272.20,2187.96"/>
        <lane id=":6234996944_7_2" index="2" disallow="tram rail_urban rail rail_electric rail_fast ship" speed="25.00" length="8.04" shape="1264.76,2191.44 1266.93,2191.22 1268.42,2191.11 1269.91,2191.10 1272.09,2191.16"/>
        <lane id=":6234996944_7_3" index="3" disallow="tram rail_urban rail rail_electric rail_fast ship" speed="25.00" length="8.04" shape="1265.09,2194.62 1267.13,2194.41 1268.53,2194.31 1269.94,2194.30 1271.99,2194.35"/>
        <lane id=":6234996944_7_4" index="4" disallow="tram rail_urban rail rail_electric rail_fast ship" speed="25.00" length="8.04" shape="1265.09,2194.62 1267.18,2194.90 1268.48,2195.90 1269.78,2196.99 1271.88,2197.55"/>
        <lane id=":6234996944_7_5" index="5" disallow="tram rail_urban rail rail_electric rail_fast ship" speed="25.00" length="8.04" shape="1265.09,2194.62 1267.40,2195.36 1268.43,2197.45 1269.46,2199.66 1271.78,2200.75"/>
    </edge>
    <edge id=":6234996949_0" function="internal">
        <lane id=":6234996949_0_0" index="0" disallow="pedestrian bicycle tram rail_urban rail rail_electric rail_fast ship" speed="7.29" length="11.66" shape="1188.91,2169.97 1192.18,2171.31 1194.95,2171.46 1197.23,2170.42 1199.00,2168.20"/>
    </edge>
    <edge id=":6234996949_1" function="internal">
        <lane id=":6234996949_1_0" index="0" disallow="tram rail_urban rail rail_electric rail_fast ship" speed="27.78" length="19.50" shape="1187.37,2172.78 1192.82,2174.04 1197.09,2172.57 1201.40,2171.03 1206.95,2172.11"/>
        <lane id=":6234996949_1_1" index="1" disallow="tram rail_urban rail rail_electric rail_fast ship" speed="27.78" length="19.50" shape="1187.37,2172.78 1192.44,2174.40 1196.38,2173.99 1200.36,2173.52 1205.52,2174.97"/>
    </edge>
    <edge id=":6234996949_3" function="internal">
        <lane id=":6234996949_3_0" index="0" disallow="pedestrian bicycle tram rail_urban rail rail_electric rail_fast ship" speed="13.89" length="15.22" shape="1186.08,2178.46 1193.37,2165.15"/>
        <lane id=":6234996949_3_1" index="1" disallow="pedestrian bicycle tram rail_urban rail rail_electric rail_fast ship" speed="13.89" length="15.22" shape="1188.88,2180.00 1196.19,2166.68"/>
        <lane id=":6234996949_3_2" index="2" disallow="pedestrian bicycle tram rail_urban rail rail_electric rail_fast ship" speed="13.89" length="15.22" shape="1191.68,2181.55 1199.00,2168.20"/>
        <lane id=":6234996949_3_3" index="3" disallow="pedestrian bicycle tram rail_urban rail rail_electric rail_fast ship" speed="13.89" length="15.22" shape="1194.48,2183.10 1201.82,2169.72"/>
    </edge>
    <edge id=":6234996949_7" function="internal">
        <lane id=":6234996949_7_0" index="0" disallow="pedestrian bicycle tram rail_urban rail rail_electric rail_fast ship" speed="7.58" length="12.24" shape="1194.48,2183.10 1196.71,2179.81 1199.06,2177.84 1201.52,2177.18 1204.09,2177.83"/>
    </edge>
    <edge id=":6234996949_8" function="internal">
        <lane id=":6234996949_8_0" index="0" disallow="pedestrian bicycle tram rail_urban rail rail_electric rail_fast ship" speed="6.80" length="9.63" shape="1194.48,2183.10 1196.04,2181.04 1197.93,2179.95 1200.13,2179.84 1202.66,2180.70"/>
    </edge>
    <edge id=":6900059023_0" function="internal">
        <lane id=":6900059023_0_0" index="0" disallow="pedestrian bicycle tram rail_urban rail rail_electric rail_fast ship" speed="13.89" length="0.30" shape="1183.76,2182.66 1183.90,2182.40"/>
        <lane id=":6900059023_0_1" index="1" disallow="pedestrian bicycle tram rail_urban rail rail_electric rail_fast ship" speed="13.89" length="0.30" shape="1186.56,2184.21 1186.70,2183.95"/>
        <lane id=":6900059023_0_2" index="2" disallow="pedestrian bicycle tram rail_urban rail rail_electric rail_fast ship" speed="13.89" length="0.30" shape="1189.36,2185.76 1189.50,2185.49"/>
        <lane id=":6900059023_0_3" index="3" disallow="pedestrian bicycle tram rail_urban rail rail_electric rail_fast ship" speed="13.89" length="0.30" shape="1192.16,2187.30 1192.30,2187.04"/>
    </edge>
    <edge id=":6902109292_0" function="internal">
        <lane id=":6902109292_0_0" index="0" disallow="tram rail_urban rail rail_electric rail_fast ship" speed="22.22" length="0.32" shape="1221.30,2156.53 1221.16,2156.50 1221.07,2156.48 1220.98,2156.45 1220.84,2156.40"/>
        <lane id=":6902109292_0_1" index="1" disallow="tram rail_urban rail rail_electric rail_fast ship" speed="22.22" length="0.32" shape="1222.03,2153.42 1221.98,2153.41 1221.95,2153.40 1221.92,2153.39 1221.88,2153.37"/>
    </edge>
    <edge id=":6904776819_0" function="internal">
        <lane id=":6904776819_0_0" index="0" disallow="pedestrian bicycle tram rail_urban rail rail_electric rail_fast ship" speed="13.89" length="0.30" shape="1223.41,2108.49 1223.55,2108.23"/>
        <lane id=":6904776819_0_1" index="1" disallow="pedestrian bicycle tram rail_urban rail rail_electric rail_fast ship" speed="13.89" length="0.30" shape="1226.24,2109.99 1226.38,2109.73"/>
        <lane id=":6904776819_0_2" index="2" disallow="pedestrian bicycle tram rail_urban rail rail_electric rail_fast ship" speed="13.89" length="0.30" shape="1229.06,2111.49 1229.20,2111.23"/>
        <lane id=":6904776819_0_3" index="3" disallow="pedestrian bicycle tram rail_urban rail rail_electric rail_fast ship" speed="13.89" length="0.30" shape="1231.89,2112.99 1232.03,2112.73"/>
    </edge>
    <edge id=":6985007465_0" function="internal">
        <lane id=":6985007465_0_0" index="0" disallow="pedestrian bicycle tram rail_urban rail rail_electric rail_fast ship" speed="5.41" length="5.28" shape="1193.93,2159.79 1192.01,2159.17 1190.53,2158.91 1189.51,2159.01 1188.94,2159.47"/>
    </edge>
    <edge id=":6985007465_1" function="internal">
        <lane id=":6985007465_1_0" index="0" disallow="pedestrian bicycle tram rail_urban rail rail_electric rail_fast ship" speed="13.89" length="1.15" shape="1192.31,2159.97 1191.75,2161.00"/>
        <lane id=":6985007465_1_1" index="1" disallow="pedestrian bicycle tram rail_urban rail rail_electric rail_fast ship" speed="13.89" length="1.15" shape="1189.49,2158.45 1188.94,2159.47"/>
        <lane id=":6985007465_1_2" index="2" disallow="pedestrian bicycle tram rail_urban rail rail_electric rail_fast ship" speed="13.89" length="1.15" shape="1186.68,2156.93 1186.13,2157.94"/>
        <lane id=":6985007465_1_3" index="3" disallow="pedestrian bicycle tram rail_urban rail rail_electric rail_fast ship" speed="13.89" length="1.15" shape="1183.86,2155.41 1183.32,2156.41"/>
    </edge>
    <edge id=":6985007466_0" function="internal">
        <lane id=":6985007466_0_0" index="0" disallow="tram rail_urban rail rail_electric rail_fast ship" speed="20.84" length="19.29" shape="1211.24,2170.63 1204.96,2169.03 1200.64,2165.75 1197.35,2162.22 1194.12,2159.86"/>
        <lane id=":6985007466_0_1" index="1" disallow="tram rail_urban rail rail_electric rail_fast ship" speed="20.84" length="19.29" shape="1211.36,2167.44 1205.36,2166.34 1200.97,2164.17 1197.46,2161.73 1194.12,2159.86"/>
        <lane id=":6985007466_0_2" index="2" disallow="tram rail_urban rail rail_electric rail_fast ship" speed="20.84" length="19.29" shape="1211.49,2164.24 1205.66,2163.65 1201.20,2162.57 1197.55,2161.23 1194.12,2159.86"/>
    </edge>
    <edge id=":6985007466_3" function="internal">
        <lane id=":6985007466_3_0" index="0" disallow="pedestrian bicycle tram rail_urban rail rail_electric rail_fast ship" speed="13.89" length="12.90" shape="1193.47,2164.98 1199.62,2153.63"/>
        <lane id=":6985007466_3_1" index="1" disallow="pedestrian bicycle tram rail_urban rail rail_electric rail_fast ship" speed="13.89" length="12.90" shape="1196.28,2166.50 1202.43,2155.15"/>
        <lane id=":6985007466_3_2" index="2" disallow="pedestrian bicycle tram rail_urban rail rail_electric rail_fast ship" speed="13.89" length="12.90" shape="1199.10,2168.02 1205.24,2156.68"/>
        <lane id=":6985007466_3_3" index="3" disallow="pedestrian bicycle tram rail_urban rail rail_electric rail_fast ship" speed="13.89" length="12.90" shape="1201.91,2169.54 1208.06,2158.21"/>
    </edge>
    <edge id=":gneJ0_0" function="internal">
        <lane id=":gneJ0_0_0" index="0" speed="13.89" length="0.35" shape="1217.86,2170.89 1217.75,2170.89"/>
        <lane id=":gneJ0_0_1" index="1" speed="13.89" length="0.35" shape="1218.22,2167.71 1217.87,2167.69"/>
        <lane id=":gneJ0_0_2" index="2" speed="13.89" length="0.35" shape="1218.58,2164.53 1218.00,2164.49"/>
    </edge>

    <edge id="-216650113" from="4528473378" to="387094106" priority="3" type="highway.residential" shape="1189.19,2155.64 1178.18,2150.29 1150.12,2136.67 1109.79,2116.02">
        <lane id="-216650113_0" index="0" disallow="tram rail_urban rail rail_electric rail_fast ship" speed="13.89" length="80.63" shape="1179.73,2156.38 1176.08,2154.61 1147.98,2140.97 1107.60,2120.29"/>
        <lane id="-216650113_1" index="1" disallow="tram rail_urban rail rail_electric rail_fast ship" speed="13.89" length="80.63" shape="1181.13,2153.50 1177.48,2151.73 1149.41,2138.10 1109.06,2117.44"/>
    </edge>
    <edge id="167533249#0" from="4963776942" to="6234996944" priority="12" type="highway.primary" spreadType="center">
        <lane id="167533249#0_0" index="0" disallow="tram rail_urban rail rail_electric rail_fast ship" speed="27.78" length="40.27" shape="1224.98,2179.18 1263.71,2181.18"/>
        <lane id="167533249#0_1" index="1" disallow="tram rail_urban rail rail_electric rail_fast ship" speed="27.78" length="40.27" shape="1224.81,2182.38 1264.04,2184.40"/>
        <lane id="167533249#0_2" index="2" disallow="tram rail_urban rail rail_electric rail_fast ship" speed="27.78" length="40.27" shape="1224.65,2185.57 1264.37,2187.62"/>
        <lane id="167533249#0_3" index="3" disallow="tram rail_urban rail rail_electric rail_fast ship" speed="27.78" length="40.27" shape="1224.48,2188.77 1264.70,2190.84"/>
        <lane id="167533249#0_4" index="4" disallow="tram rail_urban rail rail_electric rail_fast ship" speed="27.78" length="40.27" shape="1224.32,2191.97 1265.03,2194.06"/>
        <lane id="167533249#0_5" index="5" disallow="tram rail_urban rail rail_electric rail_fast ship" speed="27.78" length="40.27" shape="1224.15,2195.16 1265.36,2197.28"/>
        <lane id="167533249#0_6" index="6" disallow="tram rail_urban rail rail_electric rail_fast ship" speed="27.78" length="40.27" shape="1223.99,2198.36 1265.70,2200.51"/>
    </edge>
    <edge id="167533249#1" from="6234996944" to="6901829806" priority="12" type="highway.primary" spreadType="center" shape="1268.56,2191.04 1539.53,2199.88 1553.39,2200.23 1574.76,2201.31">
        <lane id="167533249#1_0" index="0" disallow="tram rail_urban rail rail_electric rail_fast ship" speed="27.78" length="302.84" acceleration="1" shape="1272.40,2181.56 1539.81,2190.28 1553.75,2190.64 1575.24,2191.72"/>
        <lane id="167533249#1_1" index="1" disallow="tram rail_urban rail rail_electric rail_fast ship" speed="27.78" length="302.84" acceleration="1" shape="1272.30,2184.76 1539.72,2193.48 1553.63,2193.83 1575.08,2194.92"/>
        <lane id="167533249#1_2" index="2" disallow="tram rail_urban rail rail_electric rail_fast ship" speed="27.78" length="302.84" acceleration="1" shape="1272.20,2187.96 1539.62,2196.68 1553.51,2197.03 1574.92,2198.11"/>
        <lane id="167533249#1_3" index="3" disallow="tram rail_urban rail rail_electric rail_fast ship" speed="27.78" length="302.84" acceleration="1" shape="1272.09,2191.16 1539.53,2199.88 1553.39,2200.23 1574.76,2201.31"/>
        <lane id="167533249#1_4" index="4" disallow="tram rail_urban rail rail_electric rail_fast ship" speed="27.78" length="302.84" acceleration="1" shape="1271.99,2194.35 1539.44,2203.08 1553.27,2203.43 1574.60,2204.51"/>
        <lane id="167533249#1_5" index="5" disallow="tram rail_urban rail rail_electric rail_fast ship" speed="27.78" length="302.84" acceleration="1" shape="1271.88,2197.55 1539.34,2206.28 1553.15,2206.63 1574.44,2207.70"/>